tests/data/state_estimation/ill-conditioned-system/grid0-with-capacitance/asym_output.json
{
  "version": "1.0",
  "type": "asym_output",
  "is_batch": false,
  "attributes": {},
  "data": {
    "node": [
      {
        "id": 0,
        "energized": 1,
        "u_pu": [
          0.9948621102685431,
          0.9948621102685432,
          0.9948621102685431
        ],
        "u": [
          5743.839071701025,
          5743.839071701026,
          5743.839071701025
        ],
        "u_angle": [
          -0.007081445077385682,
          -2.10147654747058,
          2.08731365731581
        ],
        "p": [
          501077.9919926791,
          501077.9919926159,
          501077.9919926883
        ],
        "q": [
          290686.6533223243,
          290686.6533222981,
          290686.6533222449
        ]
      },
      {
        "id": 1,
        "energized": 1,
        "u_pu": [
          0.9924591930531835,
          0.9924591930531839,
          0.9924591930531835
        ],
        "u": [
          5729.965822689743,
          5729.965822689745,
          5729.965822689743
        ],
        "u_angle": [
          -0.007704874551230438,
          -2.102099976944424,
          2.086690227841965
        ],
        "p": [
          -500000.0000000487,
          -499999.999999976,
          -500000.0000000432
        ],
        "q": [
          -299999.9999999708,
          -299999.9999999429,
          -299999.9999999404
        ]
      }
    ],
    "line": [
      {
        "id": 2,
        "energized": 1,
        "p_from": [
          501077.9919926791,
          501077.9919926159,
          501077.9919926883
        ],
        "q_from": [
          290686.6533223243,
          290686.6533222981,
          290686.6533222449
        ],
        "i_from": [
          100.8542960480469,
          100.8542960480351,
          100.8542960480414
        ],
        "s_from": [
          579290.846189674,
          579290.8461896062,
          579290.8461896421
        ],
        "p_to": [
          -500000.0000000487,
          -499999.999999976,
          -500000.0000000432
        ],
        "q_to": [
          -299999.9999999708,
          -299999.9999999429,
          -299999.9999999404
        ],
        "i_to": [
          101.7624201484054,
          101.762420148392,
          101.7624201484018
        ],
        "s_to": [
          583095.1894845568,
          583095.1894844801,
          583095.1894845364
        ]
      }
    ],
    "source": [
      {
        "id": 3,
        "energized": 1,
        "p": [
          501077.991992679,
          501077.9919926159,
          501077.9919926884
        ],
        "q": [
          290686.6533223243,
          290686.653322298,
          290686.6533222449
        ],
        "i": [
          100.8542960480469,
          100.8542960480351,
          100.8542960480414
        ],
        "s": [
          579290.846189674,
          579290.8461896061,
          579290.8461896422
        ],
        "pf": [
          0.8649851715913596,
          0.8649851715913518,
          0.8649851715914232
        ]
      }
    ],
    "sym_load": [
      {
        "id": 4,
        "energized": 1,
        "p": [
          500000,
          500000,
          500000
        ],
        "q": [
          299999.9999999999,
          299999.9999999999,
          299999.9999999999
        ],
        "i": [
          101.7624201484007,
          101.7624201484007,
          101.7624201484007
        ],
        "s": [
          583095.1894845299,
          583095.1894845299,
          583095.1894845299
        ],
        "pf": [
          0.8574929257125444,
          0.8574929257125444,
          0.8574929257125444
        ]
      }
    ]
  }
}
