tests/data/state_estimation/ill-conditioned-system/grid0-with-capacitance/sym_output.json
{
  "version": "1.0",
  "type": "sym_output",
  "is_batch": false,
  "attributes": {},
  "data": {
    "node": [
      {
        "id": 0,
        "energized": 1,
        "u_pu": 0.9948621102685433,
        "u": 9948.621102685433,
        "u_angle": -0.007081445077384819,
        "p": 1503233.975977867,
        "q": 872059.9599668625
      },
      {
        "id": 1,
        "energized": 1,
        "u_pu": 0.9924591930531839,
        "u": 9924.591930531838,
        "u_angle": -0.007704874551229372,
        "p": -1499999.999999921,
        "q": -899999.9999999725
      }
    ],
    "line": [
      {
        "id": 2,
        "energized": 1,
        "p_from": 1503233.975977867,
        "q_from": 872059.9599668625,
        "i_from": 100.8542960480351,
        "s_from": 1737872.538568819,
        "p_to": -1499999.999999921,
        "q_to": -899999.9999999725,
        "i_to": 101.7624201483959,
        "s_to": 1749285.568453508
      }
    ],
    "source": [
      {
        "id": 3,
        "energized": 1,
        "p": 1503233.975977867,
        "q": 872059.9599668625,
        "i": 100.8542960480351,
        "s": 1737872.538568819,
        "pf": 0.8649851715913627
      }
    ],
    "sym_load": [
      {
        "id": 4,
        "energized": 1,
        "p": 1500000,
        "q": 899999.9999999999,
        "i": 101.7624201484007,
        "s": 1749285.56845359,
        "pf": 0.8574929257125443
      }
    ]
  }
}
